Version 4
SHEET 1 880 680
WIRE 160 112 160 80
WIRE 64 160 0 160
WIRE 96 160 64 160
WIRE 288 160 240 160
WIRE 0 208 0 160
WIRE 160 240 160 208
WIRE 0 304 0 288
FLAG 64 160 in
FLAG 288 160 out
FLAG 0 304 0
FLAG 160 240 0
FLAG 160 80 VDD
SYMBOL voltage 0 192 R0
SYMATTR InstName Vin
SYMATTR Value 0
SYMBOL inverter 128 160 R0
SYMATTR InstName X1
TEXT -472 120 Left 2 !.include cmosedu_models.txt\nVDD VDD 0 DC 1
TEXT -472 96 Left 2 !.dc VIn 0 1 1m
