Version 4
SHEET 1 880 680
WIRE 160 112 160 80
WIRE 64 160 0 160
WIRE 96 160 64 160
WIRE 288 160 240 160
WIRE 368 160 288 160
WIRE 368 192 368 160
WIRE 0 208 0 160
WIRE 160 240 160 208
WIRE 368 272 368 256
WIRE 0 304 0 288
FLAG 64 160 in
FLAG 288 160 out
FLAG 0 304 0
FLAG 160 240 0
FLAG 160 80 VDD
FLAG 368 272 0
SYMBOL voltage 0 192 R0
WINDOW 123 0 0 Left 0
WINDOW 39 0 0 Left 0
SYMATTR InstName Vin
SYMATTR Value PULSE(0 1 2n 10p 0 1)
SYMBOL inverter 128 160 R0
SYMATTR InstName X1
SYMBOL cap 352 192 R0
SYMATTR InstName C1
SYMATTR Value 10p
TEXT -248 40 Left 2 !.include cmosedu_models.txt\nVDD VDD 0 DC 1
TEXT -248 104 Left 2 !.tran 0 50n 0 10p
